Distribution/8500Node/DSSfiles/IEEE8500u_EXP_VOLTAGES.CSV
Bus, BasekV, Node1, Magnitude1, Angle1, pu1, Node2, Magnitude2, Angle2, pu2, Node3, Magnitude3, Angle3, pu3
"SOURCEBUS", 115, 1,      69715,    0.0,      1.05, 2,      69715, -120.0,      1.05, 3,      69715,  120.0,      1.05
"_HVMV_SUB_LSB", 115, 1,          0,    0.0,         0, 2,          0,    0.0,         0, 3,          0,    0.0,         0
"HVMV_SUB_48332", 115, 1,          0,    0.0,         0, 2,          0,    0.0,         0, 3,          0,    0.0,         0
"M1009763", 115, 1,          0,    0.0,         0, 2,          0,    0.0,         0, 3,          0,    0.0,         0
"L2673322", 115, 2,          0,    0.0,         0, 0, 0, 0, 0, 0, 0, 0, 0
"M1069148", 115, 3,          0,    0.0,         0, 0, 0, 0, 0, 0, 0, 0, 0
"L2673309", 115, 3,          0,    0.0,         0, 0, 0, 0, 0, 0, 0, 0, 0
"M1069588", 115, 2,          0,    0.0,         0, 0, 0, 0, 0, 0, 0, 0, 0
"L2804270", 115, 2,          0,    0.0,         0, 0, 0, 0, 0, 0, 0, 0, 0
"M3036164", 115, 2,          0,    0.0,         0, 0, 0, 0, 0, 0, 0, 0, 0
"L2935553", 115, 2,          0,    0.0,         0, 0, 0, 0, 0, 0, 0, 0, 0
"M1209749", 115, 2,          0,    0.0,         0, 0, 0, 0, 0, 0, 0, 0, 0
"L2748840", 115, 2,          0,    0.0,         0, 0, 0, 0, 0, 0, 0, 0, 0
"M1108264", 115, 2,          0,    0.0,         0, 0, 0, 0, 0, 0, 0, 0, 0
"M1108263", 115, 2,          0,    0.0,         0, 0, 0, 0, 0, 0, 0, 0, 0
"L3085398", 115, 1,          0,    0.0,         0, 2,          0,    0.0,         0, 3,          0,    0.0,         0
"M1026891", 115, 1,          0,    0.0,         0, 2,          0,    0.0,         0, 3,          0,    0.0,         0
"L3216367", 115, 1,          0,    0.0,         0, 2,          0,    0.0,         0, 3,          0,    0.0,         0
"M1069468", 115, 1,          0,    0.0,         0, 2,          0,    0.0,         0, 3,          0,    0.0,         0
"M1142800", 115, 2,          0,    0.0,         0, 0, 0, 0, 0, 0, 0, 0, 0
"M1142799", 115, 2,          0,    0.0,         0, 0, 0, 0, 0, 0, 0, 0, 0
"M1047592", 115, 1,          0,    0.0,         0, 2,          0,    0.0,         0, 3,          0,    0.0,         0
"P827512", 115, 3,          0,    0.0,         0, 0, 0, 0, 0, 0, 0, 0, 0
"M1047339", 115, 1,          0,    0.0,         0, 2,          0,    0.0,         0, 3,          0,    0.0,         0
"P895104", 115, 1,          0,    0.0,         0, 0, 0, 0, 0, 0, 0, 0, 0
"M1026915", 115, 1,          0,    0.0,         0, 2,          0,    0.0,         0, 3,          0,    0.0,         0
"M1026920", 115, 1,          0,    0.0,         0, 2,          0,    0.0,         0, 3,          0,    0.0,         0
"N1138596", 115, 1,          0,    0.0,         0, 0, 0, 0, 0, 0, 0, 0, 0
"L3254207", 115, 1,          0,    0.0,         0, 0, 0, 0, 0, 0, 0, 0, 0
"M1069464", 115, 1,          0,    0.0,         0, 2,          0,    0.0,         0, 3,          0,    0.0,         0
"P873787", 115, 2,          0,    0.0,         0, 0, 0, 0, 0, 0, 0, 0, 0
"N1144665", 115, 1,          0,    0.0,         0, 2,          0,    0.0,         0, 3,          0,    0.0,         0
"M1047515", 115, 1,          0,    0.0,         0, 2,          0,    0.0,         0, 3,          0,    0.0,         0
"N1137002", 115, 1,          0,    0.0,         0, 0, 0, 0, 0, 0, 0, 0, 0
"M1047707", 115, 1,          0,    0.0,         0, 0, 0, 0, 0, 0, 0, 0, 0
"L2729406", 115, 3,          0,    0.0,         0, 0, 0, 0, 0, 0, 0, 0, 0
"L2897768", 115, 3,          0,    0.0,         0, 0, 0, 0, 0, 0, 0, 0, 0
"L3649301", 115, 1,          0,    0.0,         0, 0, 0, 0, 0, 0, 0, 0, 0
"L3649302", 115, 1,          0,    0.0,         0, 0, 0, 0, 0, 0, 0, 0, 0
"L2970842", 115, 2,          0,    0.0,         0, 0, 0, 0, 0, 0, 0, 0, 0
"M1089113", 115, 2,          0,    0.0,         0, 0, 0, 0, 0, 0, 0, 0, 0
"M1047312", 115, 1,          0,    0.0,         0, 2,          0,    0.0,         0, 3,          0,    0.0,         0
"P893163", 115, 1,          0,    0.0,         0, 0, 0, 0, 0, 0, 0, 0, 0
"L2822871", 115, 1,          0,    0.0,         0, 2,          0,    0.0,         0, 3,          0,    0.0,         0
"M1026872", 115, 1,          0,    0.0,         0, 2,          0,    0.0,         0, 3,          0,    0.0,         0
"M1026312", 115, 2,          0,    0.0,         0, 0, 0, 0, 0, 0, 0, 0, 0
"L2973163", 115, 2,          0,    0.0,         0, 0, 0, 0, 0, 0, 0, 0, 0
"L3728038", 115, 1,          0,    0.0,         0, 0, 0, 0, 0, 0, 0, 0, 0
"L3728039", 115, 1,          0,    0.0,         0, 0, 0, 0, 0, 0, 0, 0, 0
"M1069567", 115, 2,          0,    0.0,         0, 0, 0, 0, 0, 0, 0, 0, 0
"M1069582", 115, 2,          0,    0.0,         0, 0, 0, 0, 0, 0, 0, 0, 0
"N1140830", 115, 1,          0,    0.0,         0, 0, 0, 0, 0, 0, 0, 0, 0
"L3216351", 115, 1,          0,    0.0,         0, 0, 0, 0, 0, 0, 0, 0, 0
"L2952007", 115, 3,          0,    0.0,         0, 0, 0, 0, 0, 0, 0, 0, 0
"L2861158", 115, 3,          0,    0.0,         0, 0, 0, 0, 0, 0, 0, 0, 0
"N1140827", 115, 1,          0,    0.0,         0, 2,          0,    0.0,         0, 3,          0,    0.0,         0
"M1026726", 115, 1,          0,    0.0,         0, 2,          0,    0.0,         0, 3,          0,    0.0,         0
"L2730106", 115, 1,          0,    0.0,         0, 2,          0,    0.0,         0, 3,          0,    0.0,         0
"N1142099", 115, 1,          0,    0.0,         0, 2,          0,    0.0,         0, 3,          0,    0.0,         0
"M1026658", 115, 1,          0,    0.0,         0, 2,          0,    0.0,         0, 3,          0,    0.0,         0
"L3172805", 115, 1,          0,    0.0,         0, 0, 0, 0, 0, 0, 0, 0, 0
"P895112", 115, 1,          0,    0.0,         0, 0, 0, 0, 0, 0, 0, 0, 0
"L3048962", 115, 1,          0,    0.0,         0, 0, 0, 0, 0, 0, 0, 0, 0
"L2991914", 115, 1,          0,    0.0,         0, 2,          0,    0.0,         0, 3,          0,    0.0,         0
"M1047503", 115, 1,          0,    0.0,         0, 2,          0,    0.0,         0, 3,          0,    0.0,         0
"M1047751", 115, 1,          0,    0.0,         0, 0, 0, 0, 0, 0, 0, 0, 0
"L2973154", 115, 1,          0,    0.0,         0, 0, 0, 0, 0, 0, 0, 0, 0
"L3010565", 115, 3,          0,    0.0,         0, 0, 0, 0, 0, 0, 0, 0, 0
"L2897775", 115, 3,          0,    0.0,         0, 0, 0, 0, 0, 0, 0, 0, 0
"M1125955", 115, 3,          0,    0.0,         0, 0, 0, 0, 0, 0, 0, 0, 0
"M1125957", 115, 3,          0,    0.0,         0, 0, 0, 0, 0, 0, 0, 0, 0
"M1069640", 115, 2,          0,    0.0,         0, 0, 0, 0, 0, 0, 0, 0, 0
"L2804269", 115, 2,          0,    0.0,         0, 0, 0, 0, 0, 0, 0, 0, 0
"M1026702", 115, 1,          0,    0.0,         0, 2,          0,    0.0,         0, 3,          0,    0.0,         0
"N1139551", 115, 1,          0,    0.0,         0, 2,          0,    0.0,         0, 3,          0,    0.0,         0
"N1136355", 115, 2,          0,    0.0,         0, 0, 0, 0, 0, 0, 0, 0, 0
"L2783231", 115, 2,          0,    0.0,         0, 0, 0, 0, 0, 0, 0, 0, 0
"L2748143", 115, 1,          0,    0.0,         0, 0, 0, 0, 0, 0, 0, 0, 0
"L3251854", 115, 1,          0,    0.0,         0, 0, 0, 0, 0, 0, 0, 0, 0
"M1069610", 115, 2,          0,    0.0,         0, 0, 0, 0, 0, 0, 0, 0, 0
"M1069600", 115, 2,          0,    0.0,         0, 0, 0, 0, 0, 0, 0, 0, 0
"M1069424", 115, 1,          0,    0.0,         0, 2,          0,    0.0,         0, 3,          0,    0.0,         0
"L2935549", 115, 1,          0,    0.0,         0, 2,          0,    0.0,         0, 3,          0,    0.0,         0
"P895089", 115, 3,          0,    0.0,         0, 0, 0, 0, 0, 0, 0, 0, 0
"L3235242", 115, 3,          0,    0.0,         0, 0, 0, 0, 0, 0, 0, 0, 0
"M1026795", 115, 1,          0,    0.0,         0, 2,          0,    0.0,         0, 3,          0,    0.0,         0
"N1140522", 115, 3,          0,    0.0,         0, 0, 0, 0, 0, 0, 0, 0, 0
"L3030199", 115, 1,          0,    0.0,         0, 2,          0,    0.0,         0, 3,          0,    0.0,         0
"M1125934", 115, 1,          0,    0.0,         0, 2,          0,    0.0,         0, 3,          0,    0.0,         0
"M1069189", 115, 1,          0,    0.0,         0, 2,          0,    0.0,         0, 3,          0,    0.0,         0
"L2860487", 115, 3,          0,    0.0,         0, 0, 0, 0, 0, 0, 0, 0, 0
"221-312488", 115, 1,          0,    0.0,         0, 2,          0,    0.0,         0, 3,          0,    0.0,         0
"M1089183", 115, 1,          0,    0.0,         0, 2,          0,    0.0,         0, 3,          0,    0.0,         0
"M1108464", 115, 2,          0,    0.0,         0, 0, 0, 0, 0, 0, 0, 0, 0
"L3102286", 115, 2,          0,    0.0,         0, 0, 0, 0, 0, 0, 0, 0, 0
"F739845", 115, 1,          0,    0.0,         0, 2,          0,    0.0,         0, 3,          0,    0.0,         0
"293471", 115, 1,          0,    0.0,         0, 2,          0,    0.0,         0, 3,          0,    0.0,         0
"P827499", 115, 1,          0,    0.0,         0, 0, 0, 0, 0, 0, 0, 0, 0
"N1139254", 115, 1,          0,    0.0,         0, 0, 0, 0, 0, 0, 0, 0, 0
"M1026657", 115, 1,          0,    0.0,         0, 0, 0, 0, 0, 0, 0, 0, 0
"M1026656", 115, 1,          0,    0.0,         0, 0, 0, 0, 0, 0, 0, 0, 0
"M1108299", 115, 2,          0,    0.0,         0, 0, 0, 0, 0, 0, 0, 0, 0
"M1108300", 115, 2,          0,    0.0,         0, 0, 0, 0, 0, 0, 0, 0, 0
"L3198355", 115, 2,          0,    0.0,         0, 0, 0, 0, 0, 0, 0, 0, 0
"L2805037", 115, 2,          0,    0.0,         0, 0, 0, 0, 0, 0, 0, 0, 0
"N1137994", 115, 3,          0,    0.0,         0, 0, 0, 0, 0, 0, 0, 0, 0
"M1069484", 115, 3,          0,    0.0,         0, 0, 0, 0, 0, 0, 0, 0, 0
"L2860504", 115, 1,          0,    0.0,         0, 0, 0, 0, 0, 0, 0, 0, 0
"L2860493", 115, 1,          0,    0.0,         0, 0, 0, 0, 0, 0, 0, 0, 0
"M1026783", 115, 1,          0,    0.0,         0, 2,          0,    0.0,         0, 3,          0,    0.0,         0
"M1026780", 115, 1,          0,    0.0,         0, 2,          0,    0.0,         0, 3,          0,    0.0,         0
"P895111", 115, 3,          0,    0.0,         0, 0, 0, 0, 0, 0, 0, 0, 0
"L2895496", 115, 3,          0,    0.0,         0, 0, 0, 0, 0, 0, 0, 0, 0
"N1140819", 115, 1,          0,    0.0,         0, 2,          0,    0.0,         0, 3,          0,    0.0,         0
"M1026700", 115, 1,          0,    0.0,         0, 2,          0,    0.0,         0, 3,          0,    0.0,         0
"M1089173", 115, 3,          0,    0.0,         0, 0, 0, 0, 0, 0, 0, 0, 0
"L2935551", 115, 3,          0,    0.0,         0, 0, 0, 0, 0, 0, 0, 0, 0
"M1026344", 115, 1,          0,    0.0,         0, 0, 0, 0, 0, 0, 0, 0, 0
"M1026364", 115, 1,          0,    0.0,         0, 0, 0, 0, 0, 0, 0, 0, 0
"L2879070", 115, 1,          0,    0.0,         0, 2,          0,    0.0,         0, 3,          0,    0.0,         0
"L3216345", 115, 1,          0,    0.0,         0, 2,          0,    0.0,         0, 3,          0,    0.0,         0
"M1069428", 115, 1,          0,    0.0,         0, 2,          0,    0.0,         0, 3,          0,    0.0,         0
"N1139257", 115, 2,          0,    0.0,         0, 0, 0, 0, 0, 0, 0, 0, 0
"L2991919", 115, 1,          0,    0.0,         0, 0, 0, 0, 0, 0, 0, 0, 0
"M1026361", 115, 1,          0,    0.0,         0, 0, 0, 0, 0, 0, 0, 0, 0
"N1147857", 115, 1,          0,    0.0,         0, 0, 0, 0, 0, 0, 0, 0, 0
"M1009742", 115, 1,          0,    0.0,         0, 0, 0, 0, 0, 0, 0, 0, 0
"Q14412", 115, 1,          0,    0.0,         0, 2,          0,    0.0,         0, 3,          0,    0.0,         0
"M1047325", 115, 1,          0,    0.0,         0, 2,          0,    0.0,         0, 3,          0,    0.0,         0
"N1139263", 115, 1,          0,    0.0,         0, 0, 0, 0, 0, 0, 0, 0, 0
"L3048227", 115, 1,          0,    0.0,         0, 0, 0, 0, 0, 0, 0, 0, 0
"P827506", 115, 1,          0,    0.0,         0, 0, 0, 0, 0, 0, 0, 0, 0
"M1069469", 115, 1,          0,    0.0,         0, 0, 0, 0, 0, 0, 0, 0, 0
"M1027019", 115, 2,          0,    0.0,         0, 0, 0, 0, 0, 0, 0, 0, 0
"L2785522", 115, 2,          0,    0.0,         0, 0, 0, 0, 0, 0, 0, 0, 0
"L3216338", 115, 2,          0,    0.0,         0, 0, 0, 0, 0, 0, 0, 0, 0
"L2973146", 115, 2,          0,    0.0,         0, 0, 0, 0, 0, 0, 0, 0, 0
"M3037452", 115, 1,          0,    0.0,         0, 0, 0, 0, 0, 0, 0, 0, 0
"L2973164", 115, 1,          0,    0.0,         0, 0, 0, 0, 0, 0, 0, 0, 0
"L3120376", 115, 1,          0,    0.0,         0, 0, 0, 0, 0, 0, 0, 0, 0
"M1026925", 115, 1,          0,    0.0,         0, 0, 0, 0, 0, 0, 0, 0, 0
"M1047612", 115, 3,          0,    0.0,         0, 0, 0, 0, 0, 0, 0, 0, 0
"P828360", 115, 3,          0,    0.0,         0, 0, 0, 0, 0, 0, 0, 0, 0
"M1089195", 115, 3,          0,    0.0,         0, 0, 0, 0, 0, 0, 0, 0, 0
"L3141393", 115, 3,          0,    0.0,         0, 0, 0, 0, 0, 0, 0, 0, 0
"M1026946", 115, 2,          0,    0.0,         0, 0, 0, 0, 0, 0, 0, 0, 0
"M1026940", 115, 2,          0,    0.0,         0, 0, 0, 0, 0, 0, 0, 0, 0
"M1047471", 115, 2,          0,    0.0,         0, 0, 0, 0, 0, 0, 0, 0, 0
"L3216349", 115, 2,          0,    0.0,         0, 0, 0, 0, 0, 0, 0, 0, 0
"M1047401", 115, 1,          0,    0.0,         0, 0, 0, 0, 0, 0, 0, 0, 0
"L2748132", 115, 1,          0,    0.0,         0, 0, 0, 0, 0, 0, 0, 0, 0
"L3122820", 115, 1,          0,    0.0,         0, 0, 0, 0, 0, 0, 0, 0, 0
"L3141398", 115, 1,          0,    0.0,         0, 0, 0, 0, 0, 0, 0, 0, 0
"M1108360", 115, 3,          0,    0.0,         0, 0, 0, 0, 0, 0, 0, 0, 0
"L3048968", 115, 3,          0,    0.0,         0, 0, 0, 0, 0, 0, 0, 0, 0
"L2801950", 115, 3,          0,    0.0,         0, 0, 0, 0, 0, 0, 0, 0, 0
"M1069224", 115, 3,          0,    0.0,         0, 0, 0, 0, 0, 0, 0, 0, 0
"L2766746", 115, 3,          0,    0.0,         0, 0, 0, 0, 0, 0, 0, 0, 0
"M1027073", 115, 3,          0,    0.0,         0, 0, 0, 0, 0, 0, 0, 0, 0
"M1142873", 115, 3,          0,    0.0,         0, 0, 0, 0, 0, 0, 0, 0, 0
"M1069181", 115, 1,          0,    0.0,         0, 0, 0, 0, 0, 0, 0, 0, 0
"L2973151", 115, 1,          0,    0.0,         0, 0, 0, 0, 0, 0, 0, 0, 0
"L3179682", 115, 3,          0,    0.0,         0, 0, 0, 0, 0, 0, 0, 0, 0
"L2786274", 115, 3,          0,    0.0,         0, 0, 0, 0, 0, 0, 0, 0, 0
"L3066816", 115, 1,          0,    0.0,         0, 0, 0, 0, 0, 0, 0, 0, 0
"M1026667", 115, 1,          0,    0.0,         0, 0, 0, 0, 0, 0, 0, 0, 0
"M1108529", 115, 1,          0,    0.0,         0, 2,          0,    0.0,         0, 3,          0,    0.0,         0
"M1108532", 115, 1,          0,    0.0,         0, 2,          0,    0.0,         0, 3,          0,    0.0,         0
"L2766723", 115, 1,          0,    0.0,         0, 0, 0, 0, 0, 0, 0, 0, 0
"L3122822", 115, 1,          0,    0.0,         0, 0, 0, 0, 0, 0, 0, 0, 0
"L2673312", 115, 1,          0,    0.0,         0, 0, 0, 0, 0, 0, 0, 0, 0
"L3235247", 115, 1,          0,    0.0,         0, 0, 0, 0, 0, 0, 0, 0, 0
"M1166391", 115, 3,          0,    0.0,         0, 0, 0, 0, 0, 0, 0, 0, 0
"L3254873", 115, 3,          0,    0.0,         0, 0, 0, 0, 0, 0, 0, 0, 0
"L2861157", 115, 3,          0,    0.0,         0, 0, 0, 0, 0, 0, 0, 0, 0
"P901951", 115, 3,          0,    0.0,         0, 0, 0, 0, 0, 0, 0, 0, 0
"M1047346", 115, 1,          0,    0.0,         0, 2,          0,    0.0,         0, 3,          0,    0.0,         0
"M1047345", 115, 1,          0,    0.0,         0, 2,          0,    0.0,         0, 3,          0,    0.0,         0
"L2989596", 115, 2,          0,    0.0,         0, 0, 0, 0, 0, 0, 0, 0, 0
"L2822873", 115, 2,          0,    0.0,         0, 0, 0, 0, 0, 0, 0, 0, 0
"M1108328", 115, 3,          0,    0.0,         0, 0, 0, 0, 0, 0, 0, 0, 0
"L2875754", 115, 3,          0,    0.0,         0, 0, 0, 0, 0, 0, 0, 0, 0
"L2786204", 115, 3,          0,    0.0,         0, 0, 0, 0, 0, 0, 0, 0, 0
"M1209819", 115, 3,          0,    0.0,         0, 0, 0, 0, 0, 0, 0, 0, 0
"P901972", 115, 1,          0,    0.0,         0, 0, 0, 0, 0, 0, 0, 0, 0
"M1009726", 115, 1,          0,    0.0,         0, 0, 0, 0, 0, 0, 0, 0, 0
"M1047702", 115, 1,          0,    0.0,         0, 0, 0, 0, 0, 0, 0, 0, 0
"N1137001", 115, 1,          0,    0.0,         0, 0, 0, 0, 0, 0, 0, 0, 0
"L2767340", 115, 1,          0,    0.0,         0, 2,          0,    0.0,         0, 3,          0,    0.0,         0
"M3037449", 115, 1,          0,    0.0,         0, 2,          0,    0.0,         0, 3,          0,    0.0,         0
"M1047457", 115, 2,          0,    0.0,         0, 0, 0, 0, 0, 0, 0, 0, 0
"L2710546", 115, 2,          0,    0.0,         0, 0, 0, 0, 0, 0, 0, 0, 0
"L2674027", 115, 1,          0,    0.0,         0, 2,          0,    0.0,         0, 3,          0,    0.0,         0
"L2692633", 115, 1,          0,    0.0,         0, 2,          0,    0.0,         0, 3,          0,    0.0,         0
"N1142108", 115, 1,          0,    0.0,         0, 0, 0, 0, 0, 0, 0, 0, 0
"L2674051", 115, 1,          0,    0.0,         0, 0, 0, 0, 0, 0, 0, 0, 0
"M1069135", 115, 1,          0,    0.0,         0, 2,          0,    0.0,         0, 3,          0,    0.0,         0
"R18242", 115, 1,          0,    0.0,         0, 2,          0,    0.0,         0, 3,          0,    0.0,         0
"M1047534", 115, 1,          0,    0.0,         0, 2,          0,    0.0,         0, 3,          0,    0.0,         0
"N1136663", 115, 1,          0,    0.0,         0, 2,          0,    0.0,         0, 3,          0,    0.0,         0
"M1108508", 115, 3,          0,    0.0,         0, 0, 0, 0, 0, 0, 0, 0, 0
"L3097861", 115, 3,          0,    0.0,         0, 0, 0, 0, 0, 0, 0, 0, 0
"M1069560", 115, 2,          0,    0.0,         0, 0, 0, 0, 0, 0, 0, 0, 0
"L2973153", 115, 1,          0,    0.0,         0, 2,          0,    0.0,         0, 3,          0,    0.0,         0
"N1136998", 115, 1,          0,    0.0,         0, 2,          0,    0.0,         0, 3,          0,    0.0,         0
"L2898515", 115, 3,          0,    0.0,         0, 0, 0, 0, 0, 0, 0, 0, 0
"M1166387", 115, 3,          0,    0.0,         0, 0, 0, 0, 0, 0, 0, 0, 0
"M1047442", 115, 2,          0,    0.0,         0, 0, 0, 0, 0, 0, 0, 0, 0
"L3235250", 115, 2,          0,    0.0,         0, 0, 0, 0, 0, 0, 0, 0, 0
"M1142871", 115, 1,          0,    0.0,         0, 2,          0,    0.0,         0, 3,          0,    0.0,         0
"M1142874", 115, 1,          0,    0.0,         0, 2,          0,    0.0,         0, 3,          0,    0.0,         0
"L2955081", 115, 1,          0,    0.0,         0, 2,          0,    0.0,         0, 3,          0,    0.0,         0
"M1108315", 115, 1,          0,    0.0,         0, 2,          0,    0.0,         0, 3,          0,    0.0,         0
"L2973162", 115, 1,          0,    0.0,         0, 2,          0,    0.0,         0, 3,          0,    0.0,         0
"M1026333", 115, 1,          0,    0.0,         0, 2,          0,    0.0,         0, 3,          0,    0.0,         0
"M1009832", 115, 2,          0,    0.0,         0, 0, 0, 0, 0, 0, 0, 0, 0
"L2860479", 115, 2,          0,    0.0,         0, 0, 0, 0, 0, 0, 0, 0, 0
"M1026854", 115, 1,          0,    0.0,         0, 2,          0,    0.0,         0, 3,          0,    0.0,         0
"P901894", 115, 1,          0,    0.0,         0, 0, 0, 0, 0, 0, 0, 0, 0
"M1026485", 115, 2,          0,    0.0,         0, 0, 0, 0, 0, 0, 0, 0, 0
"M1026492", 115, 2,          0,    0.0,         0, 0, 0, 0, 0, 0, 0, 0, 0
"D6413567-3_INT", 115, 1,          0,    0.0,         0, 2,          0,    0.0,         0, 3,          0,    0.0,         0
"E182724", 115, 1,          0,    0.0,         0, 2,          0,    0.0,         0, 3,          0,    0.0,         0
"N1139541", 115, 1,          0,    0.0,         0, 2,          0,    0.0,         0, 3,          0,    0.0,         0
"M4122658", 115, 1,          0,    0.0,         0, 2,          0,    0.0,         0, 3,          0,    0.0,         0
"L2933135", 115, 1,          0,    0.0,         0, 2,          0,    0.0,         0, 3,          0,    0.0,         0
"L2729414", 115, 1,          0,    0.0,         0, 2,          0,    0.0,         0, 3,          0,    0.0,         0
"L2729430", 115, 2,          0,    0.0,         0, 0, 0, 0, 0, 0, 0, 0, 0
"L2766742", 115, 2,          0,    0.0,         0, 0, 0, 0, 0, 0, 0, 0, 0
"M1026972", 115, 2,          0,    0.0,         0, 0, 0, 0, 0, 0, 0, 0, 0
"L2860483", 115, 2,          0,    0.0,         0, 0, 0, 0, 0, 0, 0, 0, 0
"L2860490", 115, 1,          0,    0.0,         0, 2,          0,    0.0,         0, 3,          0,    0.0,         0
"L3104134", 115, 1,          0,    0.0,         0, 2,          0,    0.0,         0, 3,          0,    0.0,         0
"M1089144", 115, 1,          0,    0.0,         0, 0, 0, 0, 0, 0, 0, 0, 0
"P827522", 115, 1,          0,    0.0,         0, 0, 0, 0, 0, 0, 0, 0, 0
"M1089118", 115, 1,          0,    0.0,         0, 2,          0,    0.0,         0, 3,          0,    0.0,         0
"L3048208", 115, 1,          0,    0.0,         0, 0, 0, 0, 0, 0, 0, 0, 0
"M1108505", 115, 1,          0,    0.0,         0, 2,          0,    0.0,         0, 3,          0,    0.0,         0
"L2955047", 115, 1,          0,    0.0,         0, 2,          0,    0.0,         0, 3,          0,    0.0,         0
"M1089148", 115, 1,          0,    0.0,         0, 0, 0, 0, 0, 0, 0, 0, 0
"L2766721", 115, 1,          0,    0.0,         0, 0, 0, 0, 0, 0, 0, 0, 0
"M1026745", 115, 2,          0,    0.0,         0, 0, 0, 0, 0, 0, 0, 0, 0
"L3029183", 115, 2,          0,    0.0,         0, 0, 0, 0, 0, 0, 0, 0, 0
"L2710512", 115, 2,          0,    0.0,         0, 0, 0, 0, 0, 0, 0, 0, 0
"M1047828", 115, 2,          0,    0.0,         0, 0, 0, 0, 0, 0, 0, 0, 0
"M1047342", 115, 1,          0,    0.0,         0, 0, 0, 0, 0, 0, 0, 0, 0
"L3197645", 115, 1,          0,    0.0,         0, 0, 0, 0, 0, 0, 0, 0, 0
"M1069192", 115, 1,          0,    0.0,         0, 0, 0, 0, 0, 0, 0, 0, 0
"L3235253", 115, 1,          0,    0.0,         0, 0, 0, 0, 0, 0, 0, 0, 0
"L3214071", 115, 1,          0,    0.0,         0, 2,          0,    0.0,         0, 3,          0,    0.0,         0
"M1125952", 115, 1,          0,    0.0,         0, 2,          0,    0.0,         0, 3,          0,    0.0,         0
"M1027101", 115, 2,          0,    0.0,         0, 0, 0, 0, 0, 0, 0, 0, 0
"L2860480", 115, 2,          0,    0.0,         0, 0, 0, 0, 0, 0, 0, 0, 0
"L2710517", 115, 1,          0,    0.0,         0, 0, 0, 0, 0, 0, 0, 0, 0
"M1026646", 115, 1,          0,    0.0,         0, 0, 0, 0, 0, 0, 0, 0, 0
"M1069662", 115, 2,          0,    0.0,         0, 0, 0, 0, 0, 0, 0, 0, 0
"L2935547", 115, 2,          0,    0.0,         0, 0, 0, 0, 0, 0, 0, 0, 0
"M1026931", 115, 1,          0,    0.0,         0, 0, 0, 0, 0, 0, 0, 0, 0
"L3216336", 115, 1,          0,    0.0,         0, 0, 0, 0, 0, 0, 0, 0, 0
"L3142049", 115, 1,          0,    0.0,         0, 2,          0,    0.0,         0, 3,          0,    0.0,         0
"M1108493", 115, 1,          0,    0.0,         0, 2,          0,    0.0,         0, 3,          0,    0.0,         0
"M1069169", 115, 1,          0,    0.0,         0, 2,          0,    0.0,         0, 3,          0,    0.0,         0
"L3010556", 115, 1,          0,    0.0,         0, 2,          0,    0.0,         0, 3,          0,    0.0,         0
"L2991933", 115, 3,          0,    0.0,         0, 0, 0, 0, 0, 0, 0, 0, 0
"L3122837", 115, 3,          0,    0.0,         0, 0, 0, 0, 0, 0, 0, 0, 0
"L2691936", 115, 1,          0,    0.0,         0, 0, 0, 0, 0, 0, 0, 0, 0
"L2897772", 115, 1,          0,    0.0,         0, 0, 0, 0, 0, 0, 0, 0, 0
"L3101814", 115, 1,          0,    0.0,         0, 0, 0, 0, 0, 0, 0, 0, 0
"L2766732", 115, 2,          0,    0.0,         0, 0, 0, 0, 0, 0, 0, 0, 0
"L2989564", 115, 2,          0,    0.0,         0, 0, 0, 0, 0, 0, 0, 0, 0
"M1126016", 115, 1,          0,    0.0,         0, 0, 0, 0, 0, 0, 0, 0, 0
"L3120534", 115, 1,          0,    0.0,         0, 0, 0, 0, 0, 0, 0, 0, 0
"M1026330", 115, 1,          0,    0.0,         0, 2,          0,    0.0,         0, 3,          0,    0.0,         0
"L2766726", 115, 2,          0,    0.0,         0, 0, 0, 0, 0, 0, 0, 0, 0
"P901912", 115, 2,          0,    0.0,         0, 0, 0, 0, 0, 0, 0, 0, 0
"L3195365", 115, 2,          0,    0.0,         0, 0, 0, 0, 0, 0, 0, 0, 0
"M1108381", 115, 1,          0,    0.0,         0, 2,          0,    0.0,         0, 3,          0,    0.0,         0
"L3254237", 115, 1,          0,    0.0,         0, 2,          0,    0.0,         0, 3,          0,    0.0,         0
"L2804262", 115, 1,          0,    0.0,         0, 0, 0, 0, 0, 0, 0, 0, 0
"L2841639", 115, 1,          0,    0.0,         0, 0, 0, 0, 0, 0, 0, 0, 0
"N1230123", 115, 2,          0,    0.0,         0, 0, 0, 0, 0, 0, 0, 0, 0
"L2708744", 115, 2,          0,    0.0,         0, 0, 0, 0, 0, 0, 0, 0, 0
"M1069519", 115, 1,          0,    0.0,         0, 2,          0,    0.0,         0, 3,          0,    0.0,         0
"P901927", 115, 2,          0,    0.0,         0, 0, 0, 0, 0, 0, 0, 0, 0
"L2897790", 115, 3,          0,    0.0,         0, 0, 0, 0, 0, 0, 0, 0, 0
"L2935566", 115, 3,          0,    0.0,         0, 0, 0, 0, 0, 0, 0, 0, 0
"L3216337", 115, 1,          0,    0.0,         0, 0, 0, 0, 0, 0, 0, 0, 0
"P901931", 115, 3,          0,    0.0,         0, 0, 0, 0, 0, 0, 0, 0, 0
"M1069548", 115, 3,          0,    0.0,         0, 0, 0, 0, 0, 0, 0, 0, 0
"M1010013", 115, 1,          0,    0.0,         0, 0, 0, 0, 0, 0, 0, 0, 0
"L3120503", 115, 1,          0,    0.0,         0, 0, 0, 0, 0, 0, 0, 0, 0
"M1089145", 115, 1,          0,    0.0,         0, 2,          0,    0.0,         0, 3,          0,    0.0,         0
"L3215385", 115, 1,          0,    0.0,         0, 2,          0,    0.0,         0, 3,          0,    0.0,         0
"M1026852", 115, 1,          0,    0.0,         0, 2,          0,    0.0,         0, 3,          0,    0.0,         0
"M1069420", 115, 1,          0,    0.0,         0, 2,          0,    0.0,         0, 3,          0,    0.0,         0
"L3157708", 115, 3,          0,    0.0,         0, 0, 0, 0, 0, 0, 0, 0, 0
"N1137991", 115, 3,          0,    0.0,         0, 0, 0, 0, 0, 0, 0, 0, 0
"M1108413", 115, 1,          0,    0.0,         0, 0, 0, 0, 0, 0, 0, 0, 0
"M1108460", 115, 1,          0,    0.0,         0, 0, 0, 0, 0, 0, 0, 0, 0
"P827532", 115, 1,          0,    0.0,         0, 0, 0, 0, 0, 0, 0, 0, 0
"M1047326", 115, 1,          0,    0.0,         0, 0, 0, 0, 0, 0, 0, 0, 0
"E182732", 115, 1,          0,    0.0,         0, 2,          0,    0.0,         0, 3,          0,    0.0,         0
"M1026760", 115, 1,          0,    0.0,         0, 2,          0,    0.0,         0, 3,          0,    0.0,         0
"L3048205", 115, 3,          0,    0.0,         0, 0, 0, 0, 0, 0, 0, 0, 0
"M1108361", 115, 3,          0,    0.0,         0, 0, 0, 0, 0, 0, 0, 0, 0
"M3036169", 115, 1,          0,    0.0,         0, 0, 0, 0, 0, 0, 0, 0, 0
"L2673317", 115, 1,          0,    0.0,         0, 0, 0, 0, 0, 0, 0, 0, 0
"L3178981", 115, 2,          0,    0.0,         0, 0, 0, 0, 0, 0, 0, 0, 0
"M1047368", 115, 2,          0,    0.0,         0, 0, 0, 0, 0, 0, 0, 0, 0
"N1136354", 115, 1,          0,    0.0,         0, 2,          0,    0.0,         0, 3,          0,    0.0,         0
"L2879794", 115, 1,          0,    0.0,         0, 0, 0, 0, 0, 0, 0, 0, 0
"M1142811", 115, 1,          0,    0.0,         0, 0, 0, 0, 0, 0, 0, 0, 0
"M1069565", 115, 2,          0,    0.0,         0, 0, 0, 0, 0, 0, 0, 0, 0
"L2785536", 115, 2,          0,    0.0,         0, 0, 0, 0, 0, 0, 0, 0, 0
"L3104114", 115, 2,          0,    0.0,         0, 0, 0, 0, 0, 0, 0, 0, 0
"M1009824", 115, 2,          0,    0.0,         0, 0, 0, 0, 0, 0, 0, 0, 0
"L2745848", 115, 1,          0,    0.0,         0, 2,          0,    0.0,         0, 3,          0,    0.0,         0
"L2673308", 115, 1,          0,    0.0,         0, 2,          0,    0.0,         0, 3,          0,    0.0,         0
"L2991939", 115, 1,          0,    0.0,         0, 2,          0,    0.0,         0, 3,          0,    0.0,         0
"L2916606", 115, 3,          0,    0.0,         0, 0, 0, 0, 0, 0, 0, 0, 0
"L2822864", 115, 3,          0,    0.0,         0, 0, 0, 0, 0, 0, 0, 0, 0
"M1142851", 115, 1,          0,    0.0,         0, 2,          0,    0.0,         0, 3,          0,    0.0,         0
"196-31070", 115, 1,          0,    0.0,         0, 2,          0,    0.0,         0, 3,          0,    0.0,         0
"M1209822", 115, 3,          0,    0.0,         0, 0, 0, 0, 0, 0, 0, 0, 0
"M1209823", 115, 3,          0,    0.0,         0, 0, 0, 0, 0, 0, 0, 0, 0
"M1069550", 115, 2,          0,    0.0,         0, 0, 0, 0, 0, 0, 0, 0, 0
"M1069551", 115, 2,          0,    0.0,         0, 0, 0, 0, 0, 0, 0, 0, 0
"L3141397", 115, 2,          0,    0.0,         0, 0, 0, 0, 0, 0, 0, 0, 0
"L3649299", 115, 1,          0,    0.0,         0, 0, 0, 0, 0, 0, 0, 0, 0
"M3772794", 115, 1,          0,    0.0,         0, 0, 0, 0, 0, 0, 0, 0, 0
"P895106", 115, 2,          0,    0.0,         0, 0, 0, 0, 0, 0, 0, 0, 0
"L3048887", 115, 2,          0,    0.0,         0, 0, 0, 0, 0, 0, 0, 0, 0
"M1047824", 115, 2,          0,    0.0,         0, 0, 0, 0, 0, 0, 0, 0, 0
"M1047834", 115, 2,          0,    0.0,         0, 0, 0, 0, 0, 0, 0, 0, 0
"M1069350", 115, 1,          0,    0.0,         0, 2,          0,    0.0,         0, 3,          0,    0.0,         0
"N1144668", 115, 1,          0,    0.0,         0, 2,          0,    0.0,         0, 3,          0,    0.0,         0
"L2879072", 115, 2,          0,    0.0,         0, 0, 0, 0, 0, 0, 0, 0, 0
"M1047441", 115, 2,          0,    0.0,         0, 0, 0, 0, 0, 0, 0, 0, 0
"M1108274", 115, 2,          0,    0.0,         0, 0, 0, 0, 0, 0, 0, 0, 0
"M1108269", 115, 2,          0,    0.0,         0, 0, 0, 0, 0, 0, 0, 0, 0
"L3235244", 115, 1,          0,    0.0,         0, 0, 0, 0, 0, 0, 0, 0, 0
"M1069398", 115, 1,          0,    0.0,         0, 0, 0, 0, 0, 0, 0, 0, 0
"N1147862", 115, 1,          0,    0.0,         0, 0, 0, 0, 0, 0, 0, 0, 0
"L2685805", 115, 1,          0,    0.0,         0, 0, 0, 0, 0, 0, 0, 0, 0
"M1069247", 115, 1,          0,    0.0,         0, 0, 0, 0, 0, 0, 0, 0, 0
"M1069248", 115, 1,          0,    0.0,         0, 0, 0, 0, 0, 0, 0, 0, 0
"L2786273", 115, 2,          0,    0.0,         0, 0, 0, 0, 0, 0, 0, 0, 0
"M1108278", 115, 2,          0,    0.0,         0, 0, 0, 0, 0, 0, 0, 0, 0
"L3254238", 115, 1,          0,    0.0,         0, 2,          0,    0.0,         0, 3,          0,    0.0,         0
"M1047303", 115, 1,          0,    0.0,         0, 2,          0,    0.0,         0, 3,          0,    0.0,         0
"M1047633", 115, 3,          0,    0.0,         0, 0, 0, 0, 0, 0, 0, 0, 0
"L2897554", 115, 3,          0,    0.0,         0, 0, 0, 0, 0, 0, 0, 0, 0
"M1069627", 115, 2,          0,    0.0,         0, 0, 0, 0, 0, 0, 0, 0, 0
"L2897791", 115, 2,          0,    0.0,         0, 0, 0, 0, 0, 0, 0, 0, 0
"M1089097", 115, 2,          0,    0.0,         0, 0, 0, 0, 0, 0, 0, 0, 0
"M1108270", 115, 2,          0,    0.0,         0, 0, 0, 0, 0, 0, 0, 0, 0
"N1142101", 115, 1,          0,    0.0,         0, 0, 0, 0, 0, 0, 0, 0, 0
"L2936214", 115, 1,          0,    0.0,         0, 0, 0, 0, 0, 0, 0, 0, 0
"L3066810", 115, 3,          0,    0.0,         0, 0, 0, 0, 0, 0, 0, 0, 0
"L2897769", 115, 3,          0,    0.0,         0, 0, 0, 0, 0, 0, 0, 0, 0
"M1209758", 115, 2,          0,    0.0,         0, 0, 0, 0, 0, 0, 0, 0, 0
"M1209753", 115, 2,          0,    0.0,         0, 0, 0, 0, 0, 0, 0, 0, 0
"M1047528", 115, 1,          0,    0.0,         0, 2,          0,    0.0,         0, 3,          0,    0.0,         0
"L2858166", 115, 1,          0,    0.0,         0, 2,          0,    0.0,         0, 3,          0,    0.0,         0
"M1142843", 115, 1,          0,    0.0,         0, 2,          0,    0.0,         0, 3,          0,    0.0,         0
"L3081380", 115, 1,          0,    0.0,         0, 2,          0,    0.0,         0, 3,          0,    0.0,         0
"L2804272", 115, 2,          0,    0.0,         0, 0, 0, 0, 0, 0, 0, 0, 0
"L2841641", 115, 2,          0,    0.0,         0, 0, 0, 0, 0, 0, 0, 0, 0
"M1069393", 115, 2,          0,    0.0,         0, 0, 0, 0, 0, 0, 0, 0, 0
"M1069408", 115, 2,          0,    0.0,         0, 0, 0, 0, 0, 0, 0, 0, 0
"N1142104", 115, 1,          0,    0.0,         0, 2,          0,    0.0,         0, 3,          0,    0.0,         0
"M1108500", 115, 1,          0,    0.0,         0, 2,          0,    0.0,         0, 3,          0,    0.0,         0
"L3216348", 115, 1,          0,    0.0,         0, 0, 0, 0, 0, 0, 0, 0, 0
"L2841627", 115, 1,          0,    0.0,         0, 0, 0, 0, 0, 0, 0, 0, 0
"L2916599", 115, 1,          0,    0.0,         0, 0, 0, 0, 0, 0, 0, 0, 0
"M1047447", 115, 2,          0,    0.0,         0, 0, 0, 0, 0, 0, 0, 0, 0
"L2954349", 115, 2,          0,    0.0,         0, 0, 0, 0, 0, 0, 0, 0, 0
"L3235246", 115, 2,          0,    0.0,         0, 0, 0, 0, 0, 0, 0, 0, 0
"M1125911", 115, 2,          0,    0.0,         0, 0, 0, 0, 0, 0, 0, 0, 0
"L2711224", 115, 2,          0,    0.0,         0, 0, 0, 0, 0, 0, 0, 0, 0
"N1147863", 115, 3,          0,    0.0,         0, 0, 0, 0, 0, 0, 0, 0, 0
"L3122817", 115, 3,          0,    0.0,         0, 0, 0, 0, 0, 0, 0, 0, 0
"M1186061", 115, 1,          0,    0.0,         0, 2,          0,    0.0,         0, 3,          0,    0.0,         0
"L2861223", 115, 2,          0,    0.0,         0, 0, 0, 0, 0, 0, 0, 0, 0
"M1069130", 115, 1,          0,    0.0,         0, 0, 0, 0, 0, 0, 0, 0, 0
"L3085396", 115, 1,          0,    0.0,         0, 0, 0, 0, 0, 0, 0, 0, 0
"E182730", 115, 1,          0,    0.0,         0, 0, 0, 0, 0, 0, 0, 0, 0
"N1142109", 115, 1,          0,    0.0,         0, 0, 0, 0, 0, 0, 0, 0, 0
"M1069417", 115, 1,          0,    0.0,         0, 2,          0,    0.0,         0, 3,          0,    0.0,         0
"N1138597", 115, 1,          0,    0.0,         0, 2,          0,    0.0,         0, 3,          0,    0.0,         0
"M1026987", 115, 2,          0,    0.0,         0, 0, 0, 0, 0, 0, 0, 0, 0
"M1026990", 115, 2,          0,    0.0,         0, 0, 0, 0, 0, 0, 0, 0, 0
"M1142832", 115, 1,          0,    0.0,         0, 2,          0,    0.0,         0, 3,          0,    0.0,         0
"L3160865", 115, 1,          0,    0.0,         0, 2,          0,    0.0,         0, 3,          0,    0.0,         0
"L2673323", 115, 3,          0,    0.0,         0, 0, 0, 0, 0, 0, 0, 0, 0
"M1009809", 115, 3,          0,    0.0,         0, 0, 0, 0, 0, 0, 0, 0, 0
"L2822869", 115, 1,          0,    0.0,         0, 2,          0,    0.0,         0, 3,          0,    0.0,         0
"M1026808", 115, 1,          0,    0.0,         0, 2,          0,    0.0,         0, 3,          0,    0.0,         0
"M1047825", 115, 2,          0,    0.0,         0, 0, 0, 0, 0, 0, 0, 0, 0
"M1069731", 115, 2,          0,    0.0,         0, 0, 0, 0, 0, 0, 0, 0, 0
"N1140520", 115, 3,          0,    0.0,         0, 0, 0, 0, 0, 0, 0, 0, 0
"L2729410", 115, 3,          0,    0.0,         0, 0, 0, 0, 0, 0, 0, 0, 0
"L3178978", 115, 1,          0,    0.0,         0, 0, 0, 0, 0, 0, 0, 0, 0
"M1069384", 115, 1,          0,    0.0,         0, 0, 0, 0, 0, 0, 0, 0, 0
"L3066805", 115, 1,          0,    0.0,         0, 0, 0, 0, 0, 0, 0, 0, 0
"M4362181", 115, 2,          0,    0.0,         0, 0, 0, 0, 0, 0, 0, 0, 0
"M1047319", 115, 3,          0,    0.0,         0, 0, 0, 0, 0, 0, 0, 0, 0
"M1047318", 115, 3,          0,    0.0,         0, 0, 0, 0, 0, 0, 0, 0, 0
"L3216358", 115, 1,          0,    0.0,         0, 0, 0, 0, 0, 0, 0, 0, 0
"M1026826", 115, 1,          0,    0.0,         0, 0, 0, 0, 0, 0, 0, 0, 0
"M1108276", 115, 2,          0,    0.0,         0, 0, 0, 0, 0, 0, 0, 0, 0
"M1089198", 115, 1,          0,    0.0,         0, 2,          0,    0.0,         0, 3,          0,    0.0,         0
"M1089201", 115, 1,          0,    0.0,         0, 2,          0,    0.0,         0, 3,          0,    0.0,         0
"M1047763", 115, 1,          0,    0.0,         0, 2,          0,    0.0,         0, 3,          0,    0.0,         0
"N1136027", 115, 1,          0,    0.0,         0, 0, 0, 0, 0, 0, 0, 0, 0
"L3101827", 115, 3,          0,    0.0,         0, 0, 0, 0, 0, 0, 0, 0, 0
"M1108540", 115, 3,          0,    0.0,         0, 0, 0, 0, 0, 0, 0, 0, 0
"M1026335", 115, 1,          0,    0.0,         0, 0, 0, 0, 0, 0, 0, 0, 0
"L2804259", 115, 1,          0,    0.0,         0, 0, 0, 0, 0, 0, 0, 0, 0
"N1136357", 115, 3,          0,    0.0,         0, 0, 0, 0, 0, 0, 0, 0, 0
"M1047513", 115, 1,          0,    0.0,         0, 2,          0,    0.0,         0, 3,          0,    0.0,         0
"M1047507", 115, 1,          0,    0.0,         0, 2,          0,    0.0,         0, 3,          0,    0.0,         0
"M1142863", 115, 1,          0,    0.0,         0, 2,          0,    0.0,         0, 3,          0,    0.0,         0
"N1141480", 115, 3,          0,    0.0,         0, 0, 0, 0, 0, 0, 0, 0, 0
"M1125916", 115, 2,          0,    0.0,         0, 0, 0, 0, 0, 0, 0, 0, 0
"L2879767", 115, 2,          0,    0.0,         0, 0, 0, 0, 0, 0, 0, 0, 0
"L3066809", 115, 3,          0,    0.0,         0, 0, 0, 0, 0, 0, 0, 0, 0
"M1069487", 115, 3,          0,    0.0,         0, 0, 0, 0, 0, 0, 0, 0, 0
"M1142818", 115, 1,          0,    0.0,         0, 2,          0,    0.0,         0, 3,          0,    0.0,         0
"P829965", 115, 1,          0,    0.0,         0, 2,          0,    0.0,         0, 3,          0,    0.0,         0
"Q14733", 115, 1,          0,    0.0,         0, 2,          0,    0.0,         0, 3,          0,    0.0,         0
"M1047568", 115, 1,          0,    0.0,         0, 2,          0,    0.0,         0, 3,          0,    0.0,         0
"M1047322", 115, 1,          0,    0.0,         0, 0, 0, 0, 0, 0, 0, 0, 0
"L2954338", 115, 2,          0,    0.0,         0, 0, 0, 0, 0, 0, 0, 0, 0
"M1047409", 115, 1,          0,    0.0,         0, 0, 0, 0, 0, 0, 0, 0, 0
"L2841648", 115, 1,          0,    0.0,         0, 0, 0, 0, 0, 0, 0, 0, 0
"M1089177", 115, 3,          0,    0.0,         0, 0, 0, 0, 0, 0, 0, 0, 0
"M1026951", 115, 2,          0,    0.0,         0, 0, 0, 0, 0, 0, 0, 0, 0
"L2954347", 115, 2,          0,    0.0,         0, 0, 0, 0, 0, 0, 0, 0, 0
"M4122657", 115, 3,          0,    0.0,         0, 0, 0, 0, 0, 0, 0, 0, 0
"L3027124", 115, 3,          0,    0.0,         0, 0, 0, 0, 0, 0, 0, 0, 0
"M1069419", 115, 1,          0,    0.0,         0, 2,          0,    0.0,         0, 3,          0,    0.0,         0
"M1069418", 115, 1,          0,    0.0,         0, 2,          0,    0.0,         0, 3,          0,    0.0,         0
"M1026824", 115, 1,          0,    0.0,         0, 2,          0,    0.0,         0, 3,          0,    0.0,         0
"P859694", 115, 3,          0,    0.0,         0, 0, 0, 0, 0, 0, 0, 0, 0
"M1047453", 115, 2,          0,    0.0,         0, 0, 0, 0, 0, 0, 0, 0, 0
"L2691948", 115, 2,          0,    0.0,         0, 0, 0, 0, 0, 0, 0, 0, 0
"P860892", 115, 3,          0,    0.0,         0, 0, 0, 0, 0, 0, 0, 0, 0
"N1139543", 115, 3,          0,    0.0,         0, 0, 0, 0, 0, 0, 0, 0, 0
"M1089205", 115, 1,          0,    0.0,         0, 0, 0, 0, 0, 0, 0, 0, 0
"N1134472", 115, 1,          0,    0.0,         0, 0, 0, 0, 0, 0, 0, 0, 0
"L2710542", 115, 2,          0,    0.0,         0, 0, 0, 0, 0, 0, 0, 0, 0
"M3032980", 115, 1,          0,    0.0,         0, 2,          0,    0.0,         0, 3,          0,    0.0,         0
"M3032977", 115, 1,          0,    0.0,         0, 2,          0,    0.0,         0, 3,          0,    0.0,         0
"M3763618", 115, 1,          0,    0.0,         0, 2,          0,    0.0,         0, 3,          0,    0.0,         0
"P1121282", 115, 3,          0,    0.0,         0, 0, 0, 0, 0, 0, 0, 0, 0
"L2917330", 115, 1,          0,    0.0,         0, 0, 0, 0, 0, 0, 0, 0, 0
"L2861222", 115, 1,          0,    0.0,         0, 0, 0, 0, 0, 0, 0, 0, 0
"M1047490", 115, 1,          0,    0.0,         0, 2,          0,    0.0,         0, 3,          0,    0.0,         0
"P1164481", 115, 1,          0,    0.0,         0, 0, 0, 0, 0, 0, 0, 0, 0
"M1069356", 115, 3,          0,    0.0,         0, 0, 0, 0, 0, 0, 0, 0, 0
"M1069363", 115, 3,          0,    0.0,         0, 0, 0, 0, 0, 0, 0, 0, 0
"P828359", 115, 3,          0,    0.0,         0, 0, 0, 0, 0, 0, 0, 0, 0
"L2878848", 115, 3,          0,    0.0,         0, 0, 0, 0, 0, 0, 0, 0, 0
"M1047486", 115, 1,          0,    0.0,         0, 2,          0,    0.0,         0, 3,          0,    0.0,         0
"L3177665", 115, 1,          0,    0.0,         0, 0, 0, 0, 0, 0, 0, 0, 0
"L2805036", 115, 2,          0,    0.0,         0, 0, 0, 0, 0, 0, 0, 0, 0
"L2692654", 115, 1,          0,    0.0,         0, 0, 0, 0, 0, 0, 0, 0, 0
"M1125929", 115, 1,          0,    0.0,         0, 0, 0, 0, 0, 0, 0, 0, 0
"M1047669", 115, 1,          0,    0.0,         0, 2,          0,    0.0,         0, 3,          0,    0.0,         0
"M1047672", 115, 1,          0,    0.0,         0, 2,          0,    0.0,         0, 3,          0,    0.0,         0
"M1125919", 115, 1,          0,    0.0,         0, 2,          0,    0.0,         0, 3,          0,    0.0,         0
"P829961", 115, 1,          0,    0.0,         0, 0, 0, 0, 0, 0, 0, 0, 0
"M1142819", 115, 1,          0,    0.0,         0, 2,          0,    0.0,         0, 3,          0,    0.0,         0
"P829960", 115, 2,          0,    0.0,         0, 0, 0, 0, 0, 0, 0, 0, 0
"P829979", 115, 2,          0,    0.0,         0, 0, 0, 0, 0, 0, 0, 0, 0
"M3036172", 115, 2,          0,    0.0,         0, 0, 0, 0, 0, 0, 0, 0, 0
"M1026883", 115, 3,          0,    0.0,         0, 0, 0, 0, 0, 0, 0, 0, 0
"M1026898", 115, 3,          0,    0.0,         0, 0, 0, 0, 0, 0, 0, 0, 0
"M1089143", 115, 1,          0,    0.0,         0, 2,          0,    0.0,         0, 3,          0,    0.0,         0
"L3141400", 115, 1,          0,    0.0,         0, 0, 0, 0, 0, 0, 0, 0, 0
"M1069481", 115, 1,          0,    0.0,         0, 2,          0,    0.0,         0, 3,          0,    0.0,         0
"P827507", 115, 3,          0,    0.0,         0, 0, 0, 0, 0, 0, 0, 0, 0
"M1026377", 115, 1,          0,    0.0,         0, 0, 0, 0, 0, 0, 0, 0, 0
"L3048210", 115, 1,          0,    0.0,         0, 0, 0, 0, 0, 0, 0, 0, 0
"E182722", 115, 1,          0,    0.0,         0, 0, 0, 0, 0, 0, 0, 0, 0
"M1026331", 115, 1,          0,    0.0,         0, 2,          0,    0.0,         0, 3,          0,    0.0,         0
"L3214055", 115, 3,          0,    0.0,         0, 0, 0, 0, 0, 0, 0, 0, 0
"M1108295", 115, 1,          0,    0.0,         0, 2,          0,    0.0,         0, 3,          0,    0.0,         0
"L2936279", 115, 1,          0,    0.0,         0, 2,          0,    0.0,         0, 3,          0,    0.0,         0
"M1026704", 115, 2,          0,    0.0,         0, 0, 0, 0, 0, 0, 0, 0, 0
"L2841634", 115, 2,          0,    0.0,         0, 0, 0, 0, 0, 0, 0, 0, 0
"M1047386", 115, 2,          0,    0.0,         0, 0, 0, 0, 0, 0, 0, 0, 0
"M1047379", 115, 2,          0,    0.0,         0, 0, 0, 0, 0, 0, 0, 0, 0
"M1089115", 115, 1,          0,    0.0,         0, 2,          0,    0.0,         0, 3,          0,    0.0,         0
"M1026486", 115, 2,          0,    0.0,         0, 0, 0, 0, 0, 0, 0, 0, 0
"M1026488", 115, 2,          0,    0.0,         0, 0, 0, 0, 0, 0, 0, 0, 0
"L3010570", 115, 1,          0,    0.0,         0, 0, 0, 0, 0, 0, 0, 0, 0
"P904451", 115, 1,          0,    0.0,         0, 0, 0, 0, 0, 0, 0, 0, 0
"221-282819", 115, 1,          0,    0.0,         0, 0, 0, 0, 0, 0, 0, 0, 0
"M1125968", 115, 1,          0,    0.0,         0, 2,          0,    0.0,         0, 3,          0,    0.0,         0
"P895107", 115, 3,          0,    0.0,         0, 0, 0, 0, 0, 0, 0, 0, 0
"N1136999", 115, 1,          0,    0.0,         0, 0, 0, 0, 0, 0, 0, 0, 0
"M1069412", 115, 2,          0,    0.0,         0, 0, 0, 0, 0, 0, 0, 0, 0
"L2879061", 115, 2,          0,    0.0,         0, 0, 0, 0, 0, 0, 0, 0, 0
"M1026947", 115, 2,          0,    0.0,         0, 0, 0, 0, 0, 0, 0, 0, 0
"M1142880", 115, 3,          0,    0.0,         0, 0, 0, 0, 0, 0, 0, 0, 0
"L2891575", 115, 3,          0,    0.0,         0, 0, 0, 0, 0, 0, 0, 0, 0
"M1026848", 115, 1,          0,    0.0,         0, 0, 0, 0, 0, 0, 0, 0, 0
"M1026847", 115, 1,          0,    0.0,         0, 0, 0, 0, 0, 0, 0, 0, 0
"L2897793", 115, 1,          0,    0.0,         0, 0, 0, 0, 0, 0, 0, 0, 0
"M1069521", 115, 1,          0,    0.0,         0, 0, 0, 0, 0, 0, 0, 0, 0
"M1069175", 115, 1,          0,    0.0,         0, 2,          0,    0.0,         0, 3,          0,    0.0,         0
"L3197637", 115, 3,          0,    0.0,         0, 0, 0, 0, 0, 0, 0, 0, 0
"L3197635", 115, 2,          0,    0.0,         0, 0, 0, 0, 0, 0, 0, 0, 0
"L2804257", 115, 2,          0,    0.0,         0, 0, 0, 0, 0, 0, 0, 0, 0
"L2860485", 115, 2,          0,    0.0,         0, 0, 0, 0, 0, 0, 0, 0, 0
"L3235945", 115, 3,          0,    0.0,         0, 0, 0, 0, 0, 0, 0, 0, 0
"L2842330", 115, 3,          0,    0.0,         0, 0, 0, 0, 0, 0, 0, 0, 0
"L2804254", 115, 1,          0,    0.0,         0, 0, 0, 0, 0, 0, 0, 0, 0
"M1047752", 115, 1,          0,    0.0,         0, 0, 0, 0, 0, 0, 0, 0, 0
"M1166370", 115, 3,          0,    0.0,         0, 0, 0, 0, 0, 0, 0, 0, 0
"M1166364", 115, 3,          0,    0.0,         0, 0, 0, 0, 0, 0, 0, 0, 0
"M3763619", 115, 1,          0,    0.0,         0, 2,          0,    0.0,         0, 3,          0,    0.0,         0
"M3037540", 115, 3,          0,    0.0,         0, 0, 0, 0, 0, 0, 0, 0, 0
"L2710509", 115, 3,          0,    0.0,         0, 0, 0, 0, 0, 0, 0, 0, 0
"L2763072", 115, 2,          0,    0.0,         0, 0, 0, 0, 0, 0, 0, 0, 0
"M4118754", 115, 2,          0,    0.0,         0, 0, 0, 0, 0, 0, 0, 0, 0
"M1089196", 115, 1,          0,    0.0,         0, 2,          0,    0.0,         0, 3,          0,    0.0,         0
"M1047484", 115, 1,          0,    0.0,         0, 2,          0,    0.0,         0, 3,          0,    0.0,         0
"L3010560", 115, 1,          0,    0.0,         0, 2,          0,    0.0,         0, 3,          0,    0.0,         0
"L3254219", 115, 3,          0,    0.0,         0, 0, 0, 0, 0, 0, 0, 0, 0
"L3254220", 115, 3,          0,    0.0,         0, 0, 0, 0, 0, 0, 0, 0, 0
"M1026648", 115, 1,          0,    0.0,         0, 0, 0, 0, 0, 0, 0, 0, 0
"M1026647", 115, 1,          0,    0.0,         0, 0, 0, 0, 0, 0, 0, 0, 0
"M1089112", 115, 1,          0,    0.0,         0, 2,          0,    0.0,         0, 3,          0,    0.0,         0
"L2691951", 115, 3,          0,    0.0,         0, 0, 0, 0, 0, 0, 0, 0, 0
"M1108433", 115, 2,          0,    0.0,         0, 0, 0, 0, 0, 0, 0, 0, 0
"228-1048090-1_INT", 115, 2,          0,    0.0,         0, 0, 0, 0, 0, 0, 0, 0, 0
"M1026327", 115, 2,          0,    0.0,         0, 0, 0, 0, 0, 0, 0, 0, 0
"L2841636", 115, 2,          0,    0.0,         0, 0, 0, 0, 0, 0, 0, 0, 0
"L2990826", 115, 1,          0,    0.0,         0, 2,          0,    0.0,         0, 3,          0,    0.0,         0
"L2911069", 115, 2,          0,    0.0,         0, 0, 0, 0, 0, 0, 0, 0, 0
"L2948732", 115, 2,          0,    0.0,         0, 0, 0, 0, 0, 0, 0, 0, 0
"M1108260", 115, 2,          0,    0.0,         0, 0, 0, 0, 0, 0, 0, 0, 0
"M1108259", 115, 2,          0,    0.0,         0, 0, 0, 0, 0, 0, 0, 0, 0
"M1069312", 115, 3,          0,    0.0,         0, 0, 0, 0, 0, 0, 0, 0, 0
"P873800", 115, 3,          0,    0.0,         0, 0, 0, 0, 0, 0, 0, 0, 0
"M1186078", 115, 3,          0,    0.0,         0, 0, 0, 0, 0, 0, 0, 0, 0
"L2876797", 115, 1,          0,    0.0,         0, 2,          0,    0.0,         0, 3,          0,    0.0,         0
"R18241", 115, 1,          0,    0.0,         0, 2,          0,    0.0,         0, 3,          0,    0.0,         0
"L3254227", 115, 2,          0,    0.0,         0, 0, 0, 0, 0, 0, 0, 0, 0
"M3037455", 115, 3,          0,    0.0,         0, 0, 0, 0, 0, 0, 0, 0, 0
"L3217052", 115, 3,          0,    0.0,         0, 0, 0, 0, 0, 0, 0, 0, 0
"P827500", 115, 1,          0,    0.0,         0, 0, 0, 0, 0, 0, 0, 0, 0
"L2822861", 115, 1,          0,    0.0,         0, 0, 0, 0, 0, 0, 0, 0, 0
"M1047724", 115, 1,          0,    0.0,         0, 2,          0,    0.0,         0, 3,          0,    0.0,         0
"M1047722", 115, 1,          0,    0.0,         0, 2,          0,    0.0,         0, 3,          0,    0.0,         0
"D5534969-2_INT", 115, 1,          0,    0.0,         0, 2,          0,    0.0,         0, 3,          0,    0.0,         0
"E182729", 115, 1,          0,    0.0,         0, 2,          0,    0.0,         0, 3,          0,    0.0,         0
"N1134477", 115, 1,          0,    0.0,         0, 2,          0,    0.0,         0, 3,          0,    0.0,         0
"M1166355", 115, 1,          0,    0.0,         0, 0, 0, 0, 0, 0, 0, 0, 0
"L2858200", 115, 1,          0,    0.0,         0, 0, 0, 0, 0, 0, 0, 0, 0
"M1047699", 115, 1,          0,    0.0,         0, 2,          0,    0.0,         0, 3,          0,    0.0,         0
"L2935554", 115, 1,          0,    0.0,         0, 2,          0,    0.0,         0, 3,          0,    0.0,         0
"M1047292", 115, 1,          0,    0.0,         0, 2,          0,    0.0,         0, 3,          0,    0.0,         0
"L2766750", 115, 3,          0,    0.0,         0, 0, 0, 0, 0, 0, 0, 0, 0
"L3649300", 115, 1,          0,    0.0,         0, 0, 0, 0, 0, 0, 0, 0, 0
"M1047733", 115, 1,          0,    0.0,         0, 0, 0, 0, 0, 0, 0, 0, 0
"L3066804", 115, 1,          0,    0.0,         0, 0, 0, 0, 0, 0, 0, 0, 0
"M3327098", 115, 2,          0,    0.0,         0, 0, 0, 0, 0, 0, 0, 0, 0
"L2691943", 115, 2,          0,    0.0,         0, 0, 0, 0, 0, 0, 0, 0, 0
"P829986", 115, 1,          0,    0.0,         0, 0, 0, 0, 0, 0, 0, 0, 0
"M1125904", 115, 1,          0,    0.0,         0, 0, 0, 0, 0, 0, 0, 0, 0
"N1139550", 115, 1,          0,    0.0,         0, 0, 0, 0, 0, 0, 0, 0, 0
"M1026307", 115, 2,          0,    0.0,         0, 0, 0, 0, 0, 0, 0, 0, 0
"L3085388", 115, 2,          0,    0.0,         0, 0, 0, 0, 0, 0, 0, 0, 0
"L3233413", 115, 2,          0,    0.0,         0, 0, 0, 0, 0, 0, 0, 0, 0
"L3122827", 115, 1,          0,    0.0,         0, 0, 0, 0, 0, 0, 0, 0, 0
"L2954355", 115, 1,          0,    0.0,         0, 0, 0, 0, 0, 0, 0, 0, 0
"P827576", 115, 2,          0,    0.0,         0, 0, 0, 0, 0, 0, 0, 0, 0
"N1139256", 115, 2,          0,    0.0,         0, 0, 0, 0, 0, 0, 0, 0, 0
"L2952003", 115, 1,          0,    0.0,         0, 2,          0,    0.0,         0, 3,          0,    0.0,         0
"N1136359", 115, 3,          0,    0.0,         0, 0, 0, 0, 0, 0, 0, 0, 0
"L3008237", 115, 3,          0,    0.0,         0, 0, 0, 0, 0, 0, 0, 0, 0
"M1089102", 115, 3,          0,    0.0,         0, 0, 0, 0, 0, 0, 0, 0, 0
"M1089096", 115, 3,          0,    0.0,         0, 0, 0, 0, 0, 0, 0, 0, 0
"P895102", 115, 2,          0,    0.0,         0, 0, 0, 0, 0, 0, 0, 0, 0
"M1125978", 115, 2,          0,    0.0,         0, 0, 0, 0, 0, 0, 0, 0, 0
"M1026706", 115, 1,          0,    0.0,         0, 2,          0,    0.0,         0, 3,          0,    0.0,         0
"N1140825", 115, 1,          0,    0.0,         0, 2,          0,    0.0,         0, 3,          0,    0.0,         0
"L3141399", 115, 3,          0,    0.0,         0, 0, 0, 0, 0, 0, 0, 0, 0
"M1069210", 115, 3,          0,    0.0,         0, 0, 0, 0, 0, 0, 0, 0, 0
"M3763624", 115, 1,          0,    0.0,         0, 2,          0,    0.0,         0, 3,          0,    0.0,         0
"P1121283", 115, 3,          0,    0.0,         0, 0, 0, 0, 0, 0, 0, 0, 0
"M1142839", 115, 1,          0,    0.0,         0, 2,          0,    0.0,         0, 3,          0,    0.0,         0
"L3067507", 115, 3,          0,    0.0,         0, 0, 0, 0, 0, 0, 0, 0, 0
"N1141478", 115, 2,          0,    0.0,         0, 0, 0, 0, 0, 0, 0, 0, 0
"M1142826", 115, 2,          0,    0.0,         0, 0, 0, 0, 0, 0, 0, 0, 0
"M1108334", 115, 3,          0,    0.0,         0, 0, 0, 0, 0, 0, 0, 0, 0
"L2692664", 115, 3,          0,    0.0,         0, 0, 0, 0, 0, 0, 0, 0, 0
"L2823544", 115, 1,          0,    0.0,         0, 0, 0, 0, 0, 0, 0, 0, 0
"226-23751", 115, 1,          0,    0.0,         0, 2,          0,    0.0,         0, 3,          0,    0.0,         0
"P827536", 115, 1,          0,    0.0,         0, 0, 0, 0, 0, 0, 0, 0, 0
"N1137999", 115, 1,          0,    0.0,         0, 0, 0, 0, 0, 0, 0, 0, 0
"L3027157", 115, 1,          0,    0.0,         0, 2,          0,    0.0,         0, 3,          0,    0.0,         0
"L2973155", 115, 1,          0,    0.0,         0, 2,          0,    0.0,         0, 3,          0,    0.0,         0
"M1186052", 115, 1,          0,    0.0,         0, 2,          0,    0.0,         0, 3,          0,    0.0,         0
"198-5320", 115, 1,          0,    0.0,         0, 2,          0,    0.0,         0, 3,          0,    0.0,         0
"L3216346", 115, 1,          0,    0.0,         0, 0, 0, 0, 0, 0, 0, 0, 0
"L2858163", 115, 1,          0,    0.0,         0, 0, 0, 0, 0, 0, 0, 0, 0
"M1047813", 115, 2,          0,    0.0,         0, 0, 0, 0, 0, 0, 0, 0, 0
"L2973149", 115, 2,          0,    0.0,         0, 0, 0, 0, 0, 0, 0, 0, 0
"L3086079", 115, 2,          0,    0.0,         0, 0, 0, 0, 0, 0, 0, 0, 0
"M1069574", 115, 2,          0,    0.0,         0, 0, 0, 0, 0, 0, 0, 0, 0
"L2710530", 115, 2,          0,    0.0,         0, 0, 0, 0, 0, 0, 0, 0, 0
"M1069285", 115, 1,          0,    0.0,         0, 3,          0,    0.0,         0, 0, 0, 0, 0
"M4113348", 115, 1,          0,    0.0,         0, 3,          0,    0.0,         0, 0, 0, 0, 0
"L2879074", 115, 1,          0,    0.0,         0, 0, 0, 0, 0, 0, 0, 0, 0
"M1026916", 115, 2,          0,    0.0,         0, 0, 0, 0, 0, 0, 0, 0, 0
"E193509", 115, 1,          0,    0.0,         0, 2,          0,    0.0,         0, 3,          0,    0.0,         0
"M1047794", 115, 2,          0,    0.0,         0, 0, 0, 0, 0, 0, 0, 0, 0
"M1047796", 115, 2,          0,    0.0,         0, 0, 0, 0, 0, 0, 0, 0, 0
"L3027116", 115, 1,          0,    0.0,         0, 2,          0,    0.0,         0, 3,          0,    0.0,         0
"L2929261", 115, 1,          0,    0.0,         0, 0, 0, 0, 0, 0, 0, 0, 0
"M1166375", 115, 1,          0,    0.0,         0, 2,          0,    0.0,         0, 3,          0,    0.0,         0
"P895080", 115, 1,          0,    0.0,         0, 0, 0, 0, 0, 0, 0, 0, 0
"L2973156", 115, 2,          0,    0.0,         0, 0, 0, 0, 0, 0, 0, 0, 0
"M1069311", 115, 1,          0,    0.0,         0, 2,          0,    0.0,         0, 3,          0,    0.0,         0
"M1069208", 115, 3,          0,    0.0,         0, 0, 0, 0, 0, 0, 0, 0, 0
"L2691945", 115, 3,          0,    0.0,         0, 0, 0, 0, 0, 0, 0, 0, 0
"N1140820", 115, 2,          0,    0.0,         0, 0, 0, 0, 0, 0, 0, 0, 0
"M1026468", 115, 2,          0,    0.0,         0, 0, 0, 0, 0, 0, 0, 0, 0
"P901909", 115, 2,          0,    0.0,         0, 0, 0, 0, 0, 0, 0, 0, 0
"M1026662", 115, 1,          0,    0.0,         0, 2,          0,    0.0,         0, 3,          0,    0.0,         0
"N1141473", 115, 1,          0,    0.0,         0, 0, 0, 0, 0, 0, 0, 0, 0
"M1026941", 115, 1,          0,    0.0,         0, 0, 0, 0, 0, 0, 0, 0, 0
"M1026942", 115, 1,          0,    0.0,         0, 0, 0, 0, 0, 0, 0, 0, 0
"N1137985", 115, 1,          0,    0.0,         0, 0, 0, 0, 0, 0, 0, 0, 0
"M1047713", 115, 1,          0,    0.0,         0, 2,          0,    0.0,         0, 3,          0,    0.0,         0
"M1047720", 115, 1,          0,    0.0,         0, 2,          0,    0.0,         0, 3,          0,    0.0,         0
"M1108298", 115, 1,          0,    0.0,         0, 2,          0,    0.0,         0, 3,          0,    0.0,         0
"196-36167", 115, 1,          0,    0.0,         0, 2,          0,    0.0,         0, 3,          0,    0.0,         0
"E183472", 115, 1,          0,    0.0,         0, 2,          0,    0.0,         0, 3,          0,    0.0,         0
"L2989566", 115, 1,          0,    0.0,         0, 2,          0,    0.0,         0, 3,          0,    0.0,         0
"M1010007", 115, 1,          0,    0.0,         0, 0, 0, 0, 0, 0, 0, 0, 0
"M1010004", 115, 1,          0,    0.0,         0, 0, 0, 0, 0, 0, 0, 0, 0
"P862322", 115, 1,          0,    0.0,         0, 2,          0,    0.0,         0, 3,          0,    0.0,         0
"M1089188", 115, 3,          0,    0.0,         0, 0, 0, 0, 0, 0, 0, 0, 0
"M1089189", 115, 3,          0,    0.0,         0, 0, 0, 0, 0, 0, 0, 0, 0
"L2972704", 115, 3,          0,    0.0,         0, 0, 0, 0, 0, 0, 0, 0, 0
"L3263051", 115, 3,          0,    0.0,         0, 0, 0, 0, 0, 0, 0, 0, 0
"N1139544", 115, 3,          0,    0.0,         0, 0, 0, 0, 0, 0, 0, 0, 0
"L2897776", 115, 3,          0,    0.0,         0, 0, 0, 0, 0, 0, 0, 0, 0
"N1230122", 115, 1,          0,    0.0,         0, 0, 0, 0, 0, 0, 0, 0, 0
"L2689726", 115, 1,          0,    0.0,         0, 0, 0, 0, 0, 0, 0, 0, 0
"M1142868", 115, 1,          0,    0.0,         0, 2,          0,    0.0,         0, 3,          0,    0.0,         0
"M1142869", 115, 1,          0,    0.0,         0, 2,          0,    0.0,         0, 3,          0,    0.0,         0
"L2767414", 115, 3,          0,    0.0,         0, 0, 0, 0, 0, 0, 0, 0, 0
"M1027027", 115, 3,          0,    0.0,         0, 0, 0, 0, 0, 0, 0, 0, 0
"L3270853", 115, 3,          0,    0.0,         0, 0, 0, 0, 0, 0, 0, 0, 0
"M1125982", 115, 2,          0,    0.0,         0, 0, 0, 0, 0, 0, 0, 0, 0
"M1069572", 115, 2,          0,    0.0,         0, 0, 0, 0, 0, 0, 0, 0, 0
"L3066826", 115, 2,          0,    0.0,         0, 0, 0, 0, 0, 0, 0, 0, 0
"M1166356", 115, 1,          0,    0.0,         0, 0, 0, 0, 0, 0, 0, 0, 0
"L2730187", 115, 1,          0,    0.0,         0, 0, 0, 0, 0, 0, 0, 0, 0
"L3122825", 115, 1,          0,    0.0,         0, 0, 0, 0, 0, 0, 0, 0, 0
"L2991920", 115, 1,          0,    0.0,         0, 0, 0, 0, 0, 0, 0, 0, 0
"N1134474", 115, 1,          0,    0.0,         0, 2,          0,    0.0,         0, 3,          0,    0.0,         0
"M1069496", 115, 1,          0,    0.0,         0, 2,          0,    0.0,         0, 3,          0,    0.0,         0
"L3122826", 115, 1,          0,    0.0,         0, 0, 0, 0, 0, 0, 0, 0, 0
"M1047358", 115, 1,          0,    0.0,         0, 0, 0, 0, 0, 0, 0, 0, 0
"L3142078", 115, 2,          0,    0.0,         0, 0, 0, 0, 0, 0, 0, 0, 0
"L2879752", 115, 2,          0,    0.0,         0, 0, 0, 0, 0, 0, 0, 0, 0
"P850072", 115, 1,          0,    0.0,         0, 2,          0,    0.0,         0, 3,          0,    0.0,         0
"221-311609", 115, 1,          0,    0.0,         0, 2,          0,    0.0,         0, 3,          0,    0.0,         0
"M1027023", 115, 1,          0,    0.0,         0, 2,          0,    0.0,         0, 3,          0,    0.0,         0
"L3122815", 115, 2,          0,    0.0,         0, 0, 0, 0, 0, 0, 0, 0, 0
"L2724120", 115, 3,          0,    0.0,         0, 0, 0, 0, 0, 0, 0, 0, 0
"M1069149", 115, 3,          0,    0.0,         0, 0, 0, 0, 0, 0, 0, 0, 0
"L2729429", 115, 1,          0,    0.0,         0, 0, 0, 0, 0, 0, 0, 0, 0
"L3215549", 115, 2,          0,    0.0,         0, 0, 0, 0, 0, 0, 0, 0, 0
"L2897800", 115, 2,          0,    0.0,         0, 0, 0, 0, 0, 0, 0, 0, 0
"L3027156", 115, 3,          0,    0.0,         0, 0, 0, 0, 0, 0, 0, 0, 0
"L2860481", 115, 3,          0,    0.0,         0, 0, 0, 0, 0, 0, 0, 0, 0
"N1140828", 115, 1,          0,    0.0,         0, 2,          0,    0.0,         0, 3,          0,    0.0,         0
"M1026708", 115, 1,          0,    0.0,         0, 2,          0,    0.0,         0, 3,          0,    0.0,         0
"M1126020", 115, 1,          0,    0.0,         0, 0, 0, 0, 0, 0, 0, 0, 0
"M1126023", 115, 1,          0,    0.0,         0, 0, 0, 0, 0, 0, 0, 0, 0
"M1026906", 115, 1,          0,    0.0,         0, 0, 0, 0, 0, 0, 0, 0, 0
"M1209824", 115, 3,          0,    0.0,         0, 0, 0, 0, 0, 0, 0, 0, 0
"M1209828", 115, 3,          0,    0.0,         0, 0, 0, 0, 0, 0, 0, 0, 0
"L3195315", 115, 1,          0,    0.0,         0, 0, 0, 0, 0, 0, 0, 0, 0
...